15
Properties=species:S:1:pos:R:3 pbc="T T T"
C       -0.00560607       0.01280186       0.93245190
C        0.01172485       1.21211284       0.20784118
C        0.02706923      -1.21557868      -1.16364709
C        0.02587782       1.20251016      -1.18437855
C        0.02884983      -0.01278196      -1.89344957
C        0.01245821      -1.19888292       0.22751134
H        0.02958995       2.14781101      -1.73441752
H        0.03258364      -2.17080370      -1.69650872
H        0.00901186      -2.13934066       0.78252330
H        0.00792380       2.16285816       0.74499167
H       -1.34871989       0.02075258       2.89254905
H        0.28630684       0.81547054      -3.75814878
H        0.28257323      -0.87982804      -3.73961069
N       -0.02281171      -0.02635685      -3.28287295
S       -0.00560607       0.01280186       2.71551940
