13
Properties=species:S:1:pos:R:3 pbc="T T T"
C        0.02900236      -0.03804379       1.16207154
C        0.01704607       1.17680197       0.46866329
C       -0.00946301      -1.17483532      -0.99975271
C       -0.00903575       1.23391481      -0.92251525
C       -0.02408949       0.05166571      -1.66394695
C        0.01778180      -1.20677413       0.39156621
F       -0.02574735       2.42434234      -1.55449551
F       -0.05324506       0.09212093      -3.01006300
F       -0.02971059      -2.32340447      -1.70526942
F        0.02203878      -2.41809681       1.00456459
F        0.02239692       2.33565191       1.17105039
H        0.03573707      -1.38395310       3.02339154
S        0.02900236      -0.03804379       2.91703365
